$ -------------------------------------------------------------------- $
$ WAVEWATCH III Grid preprocessor input file                           $
$ -------------------------------------------------------------------- $
$
  'GLobal 0.3 degree CEP ice grid '
$
   1.1  0.04118  25  24  0.
   F T T T F T
   3600. 1700. 1800. 30.
$
$NAMELIST$
$
END OF NAMELISTS
$
  'RECT' T 'SMPL'
    1152  576
      0.3122      0.3117     1.
      0.        -89.7609     1.
     -0.1  2.50  10  -1000.  2 1 '(....)' 'UNIT' 'dummy'
$
    663552*1
$
   10 3 1 '(....)' 'PART' 'dummy'
$
      0   0   F
      0   0   F
      0   0

      0.  0.  0.  0.   0
$
$ -------------------------------------------------------------------- $
$ End of input file                                                    $
$ -------------------------------------------------------------------- $
