$ -------------------------------------------------------------------- $
$ WAVEWATCH III Grid preprocessor input file                           $
$ -------------------------------------------------------------------- $
  'MULTIGRID GLOBAL+SATL'
$
   1.1 0.05 25 24 0.5
$
   F T T T F T
$
  3600.  1800. 1800.  30.
$
END OF NAMELISTS
$
 'RECT' T 'NONE'
    3    3
     1       1      1.
    -1      -1      1.
$
  -0.1 2.5  10  -100. 3 1 '(....)' 'UNIT' 'dummy'
$
   1 1 1
   1 1 1
   1 1 1
$
   10 3 1 '(....)' 'PART' 'dummy'
   0   0   F
   0   0   F
   0   0
$
$  Close list by defining line with 0 points (mandatory)
      0.  0.  0.  0.  0
$ -------------------------------------------------------------------- $
$ End of input file                                                    $
$ -------------------------------------------------------------------- $