! -------------------------------------------------------------------- !
! WAVEWATCH III - ww3_prnc.nml - Field preprocessor                    !
! -------------------------------------------------------------------- !

&FORCING_NML
  FORCING%TIMESTART         = '20090930 234500'
  FORCING%TIMESTOP          = '20091231 235900'
  FORCING%FIELD%WINDS       = T
  FORCING%GRID%ASIS         = T
/

&FILE_NML
  FILE%FILENAME      = 'wind.nc'
  FILE%LONGITUDE     = 'longitude'
  FILE%LATITUDE      = 'latitude'
  FILE%VAR(1)        = 'UGRD_10maboveground'
  FILE%VAR(2)        = 'VGRD_10maboveground'
/

! -------------------------------------------------------------------- !
! WAVEWATCH III - end of namelist                                      !
! -------------------------------------------------------------------- !